*HEADING
Input file for ABAQUS of trabecular bone subjected to compression through displacement control.
*PREPRINT, MODEL=NO, HISTORY=NO, ECHO=NO
*NODE, NSET=NALL
1, 0.000000, 0.000000, 0.000000
2, 0.029950, 0.000000, 0.000000
3, 0.059900, 0.000000, 0.000000
4, 0.089850, 0.000000, 0.000000
5, 0.119800, 0.000000, 0.000000
6, 0.149750, 0.000000, 0.000000
7, 0.179700, 0.000000, 0.000000
8, 0.209650, 0.000000, 0.000000
9, 0.239600, 0.000000, 0.000000
10, 0.269550, 0.000000, 0.000000
11, 0.299500, 0.000000, 0.000000
12, 0.329450, 0.000000, 0.000000
13, 0.359400, 0.000000, 0.000000
14, 0.389350, 0.000000, 0.000000
15, 0.419300, 0.000000, 0.000000
16, 0.449250, 0.000000, 0.000000
17, 0.479200, 0.000000, 0.000000
18, 0.509150, 0.000000, 0.000000
19, 0.539100, 0.000000, 0.000000
20, 0.569050, 0.000000, 0.000000
** ... 9241 like lines cut
*NSET, NSET=BOUNDARY
1,2,3,4,
5,6,7,8,
9,10,11,12,
13,14,15,16,
17,18,19,20,
21,22,23,24,
25,26,27,28,
29,30,31,32,
33,34,35,36,
37,38,39,40,
41,42,43,44,
45,46,47,48,
49,50,51,52,
53,54,55,56,
57,58,59,60,
61,62,63,64,
65,66,67,68,
69,70,71,72,
73,74,75,76,
77,78,79,80,
** ... 201 like lines cut
*ELEMENT, TYPE=C3D8, ELSET=EALL
1, 1, 2, 23, 22, 442, 443, 464, 463
2, 2, 3, 24, 23, 443, 444, 465, 464
3, 3, 4, 25, 24, 444, 445, 466, 465
4, 4, 5, 26, 25, 445, 446, 467, 466
5, 5, 6, 27, 26, 446, 447, 468, 467
6, 6, 7, 28, 27, 447, 448, 469, 468
7, 7, 8, 29, 28, 448, 449, 470, 469
8, 8, 9, 30, 29, 449, 450, 471, 470
9, 9, 10, 31, 30, 450, 451, 472, 471
10, 10, 11, 32, 31, 451, 452, 473, 472
11, 11, 12, 33, 32, 452, 453, 474, 473
12, 12, 13, 34, 33, 453, 454, 475, 474
13, 13, 14, 35, 34, 454, 455, 476, 475
14, 14, 15, 36, 35, 455, 456, 477, 476
15, 15, 16, 37, 36, 456, 457, 478, 477
16, 16, 17, 38, 37, 457, 458, 479, 478
17, 17, 18, 39, 38, 458, 459, 480, 479
18, 18, 19, 40, 39, 459, 460, 481, 480
19, 19, 20, 41, 40, 460, 461, 482, 481
20, 20, 21, 42, 41, 461, 462, 483, 482
** ... 7980 like lines cut
*SOLID SECTION, ELSET=EALL, MATERIAL=BONE
*MATERIAL, NAME=BONE
*ELASTIC
8000.000000, 0.330000
*STEP, NAME=DISP_20, NLGEOM=YES, INC=100
*STATIC
1.000000, 1, 0.001000, 1
*BOUNDARY
1, 1, 1, 0
1, 2, 2, 0
1, 3, 3, 0
2, 1, 1, 0
2, 2, 2, 0
2, 3, 3, 0
3, 1, 1, 0
3, 2, 2, 0
3, 3, 3, 0
4, 1, 1, 0
4, 2, 2, 0
4, 3, 3, 0
5, 1, 1, 0
5, 2, 2, 0
5, 3, 3, 0
6, 1, 1, 0
6, 2, 2, 0
6, 3, 3, 0
7, 1, 1, 0
7, 2, 2, 0
** ... 2626 like lines cut
*RESTART, WRITE, FREQUENCY=0
*OUTPUT, FIELD, TIME INTERVAL=1
*NODE OUTPUT
RF, U, S, E
*ELEMENT OUTPUT, POSITION=INTEGRATION POINTS, DIRECTIONS=YES
LE, S
*OUTPUT, HISTORY, VARIABLE=PRESELECT
*END STEP
