*Heading
** Job name: FixNd_Cube_4x_Direct Model name: FixNd_Cube_4x
** Generated by: Abaqus/CAE 6.13-1
*Preprint, echo=NO, model=NO, history=NO, contact=NO
**
** PARTS
**
*Part, name=PART-1
*Node
      1,          2.5,          1.5,          1.5
      2,          2.5,          2.5,          1.5
      3,          1.5,          1.5,          1.5
      4,          2.5,          1.5,          2.5
      5,          1.5,          2.5,          1.5
      6,          1.5,          2.5,          2.5
      7,          1.5,          1.5,          2.5
      8,          2.5,          2.5,          2.5
      9,          3.5,          1.5,          1.5
     10,          3.5,          2.5,          1.5
     11,          3.5,          2.5,          2.5
     12,          3.5,          1.5,          2.5
     13,          4.5,          1.5,          1.5
     14,          4.5,          2.5,          1.5
     15,          4.5,          1.5,          2.5
     16,          4.5,          2.5,          2.5
     17,          5.5,          1.5,          1.5
     18,          5.5,          2.5,          1.5
     19,          5.5,          2.5,          2.5
     20,          5.5,          1.5,          2.5
** ... 105 like lines cut
*Element, type=DC3D4
321,   1,   2,   3,   4
322,   5,   6,   3,   2
323,   7,   4,   3,   6
324,   8,   6,   2,   4
325,   6,   2,   4,   3
326,   1,   4,   9,   2
327,  10,   2,   9,  11
328,   8,   4,   2,  11
329,  12,  11,   9,   4
330,  11,   9,   4,   2
331,  13,  14,   9,  15
332,  10,  11,   9,  14
333,  12,  15,   9,  11
334,  16,  11,  14,  15
335,  11,  14,  15,   9
336,  13,  15,  17,  14
337,  18,  14,  17,  19
338,  16,  15,  14,  19
339,  20,  19,  17,  15
340,  19,  17,  15,  14
** ... 300 like lines cut
*Nset, nset=SET-4, generate
   1,  125,    1
*Elset, elset=SET-4, generate
 321,  640,    1
*Nset, nset=ALL, generate
   1,  125,    1
*Nset, nset=CENTRE
 63,
*Nset, nset=CORNER
 125,
** Section: Section-1-SET-4
*Solid Section, elset=SET-4, material=MATERIAL-1
,
*End Part
**  
**
** ASSEMBLY
**
*Assembly, name=Assembly
**  
*Instance, name=PART-1-1, part=PART-1
*End Instance
**  
*End Assembly
** 
** MATERIALS
** 
*Material, name=MATERIAL-1
*Conductivity
 408.16,
*Density
 8.6098e-09,
*Specific Heat
 5.58e+08,
** 
** PREDEFINED FIELDS
** 
** Name: Field-1   Type: Temperature
*Initial Conditions, type=TEMPERATURE
PART-1-1.ALL, 200.
** ----------------------------------------------------------------
** 
** STEP: Step-1
** 
*Step, name=Step-1, nlgeom=NO, inc=30000
*Heat Transfer, end=PERIOD
0.01, 20., , ,
** 
** BOUNDARY CONDITIONS
** 
** Name: Temp-BC-1 Type: Temperature
*Boundary
PART-1-1.CORNER, 11, 11, 10.
** 
** OUTPUT REQUESTS
** 
*Restart, write, frequency=0
** 
** FIELD OUTPUT: F-Output-1
** 
*Output, field, variable=PRESELECT
*Output, history, frequency=0
*End Step
