*Heading
** Job name: 2-4NdTet_Fix_Direct Model name: 2-4ndTet_Fix_Direct
** Generated by: Abaqus/CAE 6.13-1
*Preprint, echo=NO, model=NO, history=NO, contact=NO
**
** PARTS
**
*Part, name=PART-1
*Node
      1,          15.,           0.,           0.
      2,           0.,           0.,           0.
      3,           0.,          15.,           0.
      4,   4.39339828,   4.39339828,   12.0707626
      5,          7.5,          7.5,           0.
*Element, type=DC3D4
1, 1, 2, 4, 5
2, 5, 4, 3, 2
*Nset, nset=SET-4, generate
 1,  5,  1
*Elset, elset=SET-4
 1, 2
*Nset, nset=ALL, generate
 1,  5,  1
*Nset, nset=YMAX
 3,
*Nset, nset=XMAX
 1,
** Section: Section-1-SET-4
*Solid Section, elset=SET-4, material=MATERIAL-1
,
*End Part
**  
**
** ASSEMBLY
**
*Assembly, name=Assembly
**  
*Instance, name=PART-1-1, part=PART-1
*End Instance
**  
*End Assembly
** 
** MATERIALS
** 
*Material, name=MATERIAL-1
*Conductivity
 408.16,
*Density
 8.6098e-09,
*Specific Heat
 5.58e+08,
** 
** PREDEFINED FIELDS
** 
** Name: Field-1   Type: Temperature
*Initial Conditions, type=TEMPERATURE
PART-1-1.ALL, 200.
** ----------------------------------------------------------------
** 
** STEP: Step-1
** 
*Step, name=Step-1, nlgeom=NO, inc=30000
*Heat Transfer, end=PERIOD
0.001, 20., , ,
** 
** BOUNDARY CONDITIONS
** 
** Name: Temp-BC-1 Type: Temperature
*Boundary
PART-1-1.XMAX, 11, 11, 10.
** 
** OUTPUT REQUESTS
** 
*Restart, write, frequency=0
** 
** FIELD OUTPUT: F-Output-1
** 
*Output, field, variable=PRESELECT
*Output, history, frequency=0
*End Step
